data/urquhart_line_models/linecodes_3w_seq.dss
! original name: BS 5467 1997 table 10 16 (50 Hz)
New LineCode.LC1 nphases=3 Units=km Normamps=75
~ R1=1.151958533028666 X1=0.08793010515117382 R0=2.2144808153657305 X0=1.2878890315348512 C1=0 C0=0

! original name: BS 5467 1997 table 10 25 (50 Hz)
New LineCode.LC2 nphases=3 Units=km Normamps=107
~ R1=0.7278556886322107 X1=0.08038113666592335 R0=1.7078590899906727 X0=0.883285207089036 C1=0 C0=0

! original name: BS 5467 1997 table 10 35 (50 Hz)
New LineCode.LC3 nphases=3 Units=km Normamps=129
~ R1=0.5248736601918818 X1=0.07756327831625423 R0=1.3724520396841249 X0=0.6606365646681667 C1=0 C0=0

! original name: BS 5467 1997 table 10 70 (50 Hz)
New LineCode.LC4 nphases=3 Units=km Normamps=167
~ R1=0.27042067127242186 X1=0.07527563817628186 R0=0.8012875797467226 X0=0.3768180937527703 C1=0 C0=0

! original name: BS 6480 1988 table 17 Cu 120 (50 Hz)
New LineCode.LC5 nphases=3 Units=km
~ R1=0.16182002564987824 X1=0.07586849886650436 R0=0.5429886480670123 X0=0.26134488959959135 C1=0 C0=0

! original name: BS 6480 1988 table 17 Cu 16 (50 Hz)
New LineCode.LC6 nphases=3 Units=km Normamps=58
~ R1=1.1529554729412568 X1=0.09440473079522417 R0=3.0656235832705114 X0=0.801722543462897 C1=0 C0=0

! original name: Waveform 4-core 185 IEC 60287 (50 Hz)
New LineCode.LC7 nphases=3 Units=km Normamps=281
~ R1=0.16968724033675278 X1=0.06920616215129972 R0=0.41018721303487105 X0=0.15792822675196608 C1=0 C0=0

! original name: Waveform 4-core 300 IEC 60287 (50 Hz)
New LineCode.LC8 nphases=3 Units=km Normamps=419
~ R1=0.10717370684604106 X1=0.0676880916938994 R0=0.2985726546361118 X0=0.16107825788759272 C1=0 C0=0

! original name: Waveform 4-core 95 IEC 60287 (50 Hz)
New LineCode.LC9 nphases=3 Units=km Normamps=223
~ R1=0.3230555883498217 X1=0.06876547422418039 R0=0.7609623711834559 X0=0.22620247875681493 C1=0 C0=0